Circuit: * C:\Users\juddf\Documents\DiffProbe\LTSpice\Draft1.asc

WARNING: Less than two connections to node vn2.  This node is used by v3.
.step x=0
.step x=5

Date: Fri Nov 24 19:34:57 2023
Total elapsed time: 0.084 seconds.

tnom = 27
temp = 27
method = trap
totiter = 2003
traniter = 0
tranpoints = 0
accept = 0
rejected = 0
matrix size = 10
fillins = 0
solver = Normal
Avg thread counts: 3.9/0.0/6.9/3.9
Matrix Compiler1:      15 opcodes  0.1/[0.1]/0.1
Matrix Compiler2: 578 bytes object code size  0.1/0.1/[0.0]

