Circuit: * C:\Users\juddf\Documents\DiffProbe\LTSpice\Simulation.asc

Direct Newton iteration for .op point succeeded.

Date: Wed Oct 11 20:39:07 2023
Total elapsed time: 0.068 seconds.

tnom = 27
temp = 27
method = trap
totiter = 26
traniter = 0
tranpoints = 0
accept = 0
rejected = 0
matrix size = 55
fillins = 51
solver = Normal
Avg thread counts: 16.0/0.0/16.0/1.7
Matrix Compiler1:     291 opcodes
Matrix Compiler2: 5.43 KB object code size
